Version 4
SHEET 1 936 680
WIRE 336 -96 160 -96
WIRE 496 -96 416 -96
WIRE 160 -48 160 -96
WIRE 160 -48 64 -48
WIRE 256 -48 160 -48
WIRE 64 64 64 32
WIRE 256 64 256 32
WIRE 256 64 240 64
WIRE 496 64 496 -96
WIRE 528 64 496 64
WIRE 304 144 288 144
WIRE 144 160 64 160
WIRE 240 160 144 160
WIRE 496 160 496 64
WIRE 496 160 432 160
WIRE 352 240 352 160
WIRE 352 240 144 240
WIRE 16 304 16 144
WIRE 96 304 16 304
WIRE 304 304 304 144
WIRE 304 304 176 304
FLAG 528 64 0
DATAFLAG 64 48 ""
DATAFLAG 256 48 ""
SYMBOL nmos 16 64 R0
SYMATTR InstName M1
SYMATTR Value mynmos
SYMBOL nmos 288 64 M0
SYMATTR InstName M2
SYMATTR Value mynmos
SYMBOL res 48 -64 R0
SYMATTR InstName R1
SYMATTR Value 3k
SYMBOL res 240 -64 R0
SYMATTR InstName R2
SYMATTR Value 3k
SYMBOL voltage 320 -96 R270
WINDOW 0 32 56 VTop 2
WINDOW 3 -32 56 VBottom 2
WINDOW 123 0 0 Left 0
WINDOW 39 0 0 Left 0
SYMATTR InstName V1
SYMATTR Value +1
SYMBOL voltage 448 160 R90
WINDOW 0 -32 56 VBottom 2
WINDOW 3 32 56 VTop 2
WINDOW 123 0 0 Left 0
WINDOW 39 0 0 Left 0
SYMATTR InstName V2
SYMATTR Value -1
SYMBOL current 144 160 R0
WINDOW 123 0 0 Left 0
WINDOW 39 0 0 Left 0
SYMATTR InstName I1
SYMATTR Value 1m
SYMBOL voltage 80 304 R270
WINDOW 0 32 56 VTop 2
WINDOW 3 -32 56 VBottom 2
WINDOW 123 0 0 Left 0
WINDOW 39 0 0 Left 0
SYMATTR InstName V3
SYMATTR Value SINE(0 15m 10)
TEXT -160 -224 Left 2 !.model mynmos NMOS(Kp=250u vto=0.6 lambda=0.05 W=18u L=0.18u gamma=0 phi=0)
TEXT -88 264 Left 2 !;tran 0 1 0 .001
TEXT -160 368 Left 2 !.tran 0 1 0 .001
